data/raw/power_flow_datasets/10bus_tab5_VALIDATION_branch_flows.csv
from_bus,to_bus,P_from_MW,Q_from_MVAR,P_to_MW,Q_to_MVAR,P_loss_kW,Q_loss_kVAR,loading_percent
1,2,0.969206,0.48983,-0.966331,-0.486329,2.8751,3.5013,0.0057
2,3,0.866331,0.426329,-0.863416,-0.422976,2.9151,3.3529,0.0051
3,4,0.773416,0.382976,-0.769185,-0.379658,4.2314,3.3178,0.0046
4,5,0.649185,0.299658,-0.645685,-0.296456,3.5002,3.202,0.0038
5,6,0.585685,0.266456,-0.583636,-0.264088,2.0482,2.3683,0.0035
6,7,0.523636,0.244088,-0.521338,-0.241421,2.2981,2.6665,0.0031
7,8,0.321338,0.141421,-0.320202,-0.140216,1.1359,1.2054,0.0019
8,9,0.120202,0.040216,-0.120036,-0.040038,0.1666,0.1774,0.0007
9,10,0.060036,0.020038,-0.06,-0.02,0.0358,0.0384,0.0003
